Version 4
SHEET 1 880 680
WIRE 48 96 16 96
WIRE 144 96 128 96
WIRE 224 96 144 96
WIRE 144 112 144 96
WIRE 224 112 224 96
WIRE 16 128 16 96
WIRE 16 224 16 208
WIRE 144 224 144 192
WIRE 144 224 16 224
WIRE 224 224 224 192
WIRE 224 224 144 224
WIRE 144 256 144 224
FLAG 144 256 0
SYMBOL memristor_initiall100ohm 160 208 R180
WINDOW 3 36 19 Left 2
SYMATTR InstName U1
SYMBOL memristor_initiall16kohm 208 96 R0
SYMATTR InstName U2
SYMBOL voltage 16 112 R0
WINDOW 123 0 0 Left 0
WINDOW 39 0 0 Left 0
SYMATTR InstName V1
SYMATTR Value {V1}
SYMBOL memristor_initiall100ohm 144 80 R90
WINDOW 3 32 56 VTop 2
WINDOW 0 0 56 VBottom 2
SYMATTR InstName U3
TEXT -24 288 Left 2 !.step param V1 0.5 0.7 0.1
TEXT -24 320 Left 2 !.tran 7
